*SPEF "IEEE 1481-1999"
*DESIGN "RISCV"
*DATE "Sat Jan  9 01:22:56 2021"
*VENDOR "SYNOPSYS INC"
*PROGRAM "Synopsys Design Compiler cmos"
*VERSION "N-2017.09-SP2"
*DESIGN_FLOW "SYNTHESIS"
*DIVIDER /
*DELIMITER :
*BUS_DELIMITER []
*T_UNIT 1.0 NS
*C_UNIT 1.0 PF
*R_UNIT 1.0 KOHM
*L_UNIT 1.0 HENRY

*PORTS

clk I *L 0.000e+00 *S 0.000e+00 0.000e+00 
rst_n I *L 0.000e+00 *S 2.777e-02 2.777e-02 
mem_wen_D O *L 1.000e+00 *S 2.377e-01 1.576e-01 
mem_addr_D\[31\] O *L 1.000e+00 *S 3.972e-01 2.599e-01 
mem_addr_D\[30\] O *L 1.000e+00 *S 3.972e-01 2.599e-01 
mem_addr_D\[29\] O *L 1.000e+00 *S 3.972e-01 2.599e-01 
mem_addr_D\[28\] O *L 1.000e+00 *S 3.972e-01 2.599e-01 
mem_addr_D\[27\] O *L 1.000e+00 *S 3.972e-01 2.599e-01 
mem_addr_D\[26\] O *L 1.000e+00 *S 3.972e-01 2.599e-01 
mem_addr_D\[25\] O *L 1.000e+00 *S 3.972e-01 2.599e-01 
mem_addr_D\[24\] O *L 1.000e+00 *S 3.972e-01 2.599e-01 
mem_addr_D\[23\] O *L 1.000e+00 *S 3.972e-01 2.599e-01 
mem_addr_D\[22\] O *L 1.000e+00 *S 3.972e-01 2.599e-01 
mem_addr_D\[21\] O *L 1.000e+00 *S 3.972e-01 2.599e-01 
mem_addr_D\[20\] O *L 1.000e+00 *S 3.972e-01 2.599e-01 
mem_addr_D\[19\] O *L 1.000e+00 *S 3.972e-01 2.599e-01 
mem_addr_D\[18\] O *L 1.000e+00 *S 3.972e-01 2.599e-01 
mem_addr_D\[17\] O *L 1.000e+00 *S 3.972e-01 2.599e-01 
mem_addr_D\[16\] O *L 1.000e+00 *S 3.972e-01 2.599e-01 
mem_addr_D\[15\] O *L 1.000e+00 *S 3.972e-01 2.599e-01 
mem_addr_D\[14\] O *L 1.000e+00 *S 3.972e-01 2.599e-01 
mem_addr_D\[13\] O *L 1.000e+00 *S 3.972e-01 2.599e-01 
mem_addr_D\[12\] O *L 1.000e+00 *S 3.972e-01 2.599e-01 
mem_addr_D\[11\] O *L 1.000e+00 *S 3.972e-01 2.599e-01 
mem_addr_D\[10\] O *L 1.000e+00 *S 3.972e-01 2.599e-01 
mem_addr_D\[9\] O *L 1.000e+00 *S 3.972e-01 2.599e-01 
mem_addr_D\[8\] O *L 1.000e+00 *S 3.972e-01 2.599e-01 
mem_addr_D\[7\] O *L 1.000e+00 *S 3.972e-01 2.599e-01 
mem_addr_D\[6\] O *L 1.000e+00 *S 3.972e-01 2.599e-01 
mem_addr_D\[5\] O *L 1.000e+00 *S 3.972e-01 2.599e-01 
mem_addr_D\[4\] O *L 1.000e+00 *S 3.972e-01 2.599e-01 
mem_addr_D\[3\] O *L 1.000e+00 *S 3.972e-01 2.599e-01 
mem_addr_D\[2\] O *L 1.000e+00 *S 3.972e-01 2.599e-01 
mem_wdata_D\[63\] O *L 1.000e+00 *S 2.509e-01 1.687e-01 
mem_wdata_D\[62\] O *L 1.000e+00 *S 3.044e-01 2.009e-01 
mem_wdata_D\[61\] O *L 1.000e+00 *S 3.058e-01 2.018e-01 
mem_wdata_D\[60\] O *L 1.000e+00 *S 3.058e-01 2.018e-01 
mem_wdata_D\[59\] O *L 1.000e+00 *S 3.086e-01 2.035e-01 
mem_wdata_D\[58\] O *L 1.000e+00 *S 2.497e-01 1.680e-01 
mem_wdata_D\[57\] O *L 1.000e+00 *S 3.972e-01 2.599e-01 
mem_wdata_D\[56\] O *L 1.000e+00 *S 3.972e-01 2.599e-01 
mem_wdata_D\[55\] O *L 1.000e+00 *S 3.060e-01 2.019e-01 
mem_wdata_D\[54\] O *L 1.000e+00 *S 3.850e-01 2.470e-01 
mem_wdata_D\[53\] O *L 1.000e+00 *S 3.037e-01 2.005e-01 
mem_wdata_D\[52\] O *L 1.000e+00 *S 3.850e-01 2.470e-01 
mem_wdata_D\[51\] O *L 1.000e+00 *S 3.044e-01 2.009e-01 
mem_wdata_D\[50\] O *L 1.000e+00 *S 3.850e-01 2.470e-01 
mem_wdata_D\[49\] O *L 1.000e+00 *S 3.058e-01 2.018e-01 
mem_wdata_D\[48\] O *L 1.000e+00 *S 2.509e-01 1.687e-01 
mem_wdata_D\[47\] O *L 1.000e+00 *S 3.036e-01 2.005e-01 
mem_wdata_D\[46\] O *L 1.000e+00 *S 3.036e-01 2.005e-01 
mem_wdata_D\[45\] O *L 1.000e+00 *S 3.033e-01 2.003e-01 
mem_wdata_D\[44\] O *L 1.000e+00 *S 2.489e-01 1.675e-01 
mem_wdata_D\[43\] O *L 1.000e+00 *S 3.044e-01 2.009e-01 
mem_wdata_D\[42\] O *L 1.000e+00 *S 3.060e-01 2.019e-01 
mem_wdata_D\[41\] O *L 1.000e+00 *S 2.492e-01 1.677e-01 
mem_wdata_D\[40\] O *L 1.000e+00 *S 2.489e-01 1.675e-01 
mem_wdata_D\[39\] O *L 1.000e+00 *S 3.033e-01 2.003e-01 
mem_wdata_D\[38\] O *L 1.000e+00 *S 3.036e-01 2.005e-01 
mem_wdata_D\[37\] O *L 1.000e+00 *S 3.033e-01 2.003e-01 
mem_wdata_D\[36\] O *L 1.000e+00 *S 3.033e-01 2.003e-01 
mem_wdata_D\[35\] O *L 1.000e+00 *S 2.489e-01 1.675e-01 
mem_wdata_D\[34\] O *L 1.000e+00 *S 3.033e-01 2.003e-01 
mem_wdata_D\[33\] O *L 1.000e+00 *S 3.850e-01 2.470e-01 
mem_wdata_D\[32\] O *L 1.000e+00 *S 3.850e-01 2.470e-01 
mem_wdata_D\[31\] O *L 1.000e+00 *S 3.850e-01 2.470e-01 
mem_wdata_D\[30\] O *L 1.000e+00 *S 2.490e-01 1.676e-01 
mem_wdata_D\[29\] O *L 1.000e+00 *S 2.490e-01 1.676e-01 
mem_wdata_D\[28\] O *L 1.000e+00 *S 3.040e-01 2.007e-01 
mem_wdata_D\[27\] O *L 1.000e+00 *S 3.040e-01 2.007e-01 
mem_wdata_D\[26\] O *L 1.000e+00 *S 3.034e-01 2.003e-01 
mem_wdata_D\[25\] O *L 1.000e+00 *S 2.494e-01 1.678e-01 
mem_wdata_D\[24\] O *L 1.000e+00 *S 3.040e-01 2.007e-01 
mem_wdata_D\[23\] O *L 1.000e+00 *S 3.040e-01 2.007e-01 
mem_wdata_D\[22\] O *L 1.000e+00 *S 3.034e-01 2.003e-01 
mem_wdata_D\[21\] O *L 1.000e+00 *S 3.034e-01 2.003e-01 
mem_wdata_D\[20\] O *L 1.000e+00 *S 2.494e-01 1.678e-01 
mem_wdata_D\[19\] O *L 1.000e+00 *S 2.490e-01 1.676e-01 
mem_wdata_D\[18\] O *L 1.000e+00 *S 2.490e-01 1.676e-01 
mem_wdata_D\[17\] O *L 1.000e+00 *S 2.490e-01 1.676e-01 
mem_wdata_D\[16\] O *L 1.000e+00 *S 2.490e-01 1.676e-01 
mem_wdata_D\[15\] O *L 1.000e+00 *S 3.034e-01 2.003e-01 
mem_wdata_D\[14\] O *L 1.000e+00 *S 4.018e-01 2.627e-01 
mem_wdata_D\[13\] O *L 1.000e+00 *S 3.034e-01 2.003e-01 
mem_wdata_D\[12\] O *L 1.000e+00 *S 2.490e-01 1.676e-01 
mem_wdata_D\[11\] O *L 1.000e+00 *S 3.034e-01 2.003e-01 
mem_wdata_D\[10\] O *L 1.000e+00 *S 3.850e-01 2.470e-01 
mem_wdata_D\[9\] O *L 1.000e+00 *S 3.034e-01 2.003e-01 
mem_wdata_D\[8\] O *L 1.000e+00 *S 3.040e-01 2.007e-01 
mem_wdata_D\[7\] O *L 1.000e+00 *S 4.018e-01 2.627e-01 
mem_wdata_D\[6\] O *L 1.000e+00 *S 3.034e-01 2.003e-01 
mem_wdata_D\[5\] O *L 1.000e+00 *S 3.034e-01 2.003e-01 
mem_wdata_D\[4\] O *L 1.000e+00 *S 3.034e-01 2.003e-01 
mem_wdata_D\[3\] O *L 1.000e+00 *S 3.034e-01 2.003e-01 
mem_wdata_D\[2\] O *L 1.000e+00 *S 3.040e-01 2.007e-01 
mem_wdata_D\[1\] O *L 1.000e+00 *S 4.018e-01 2.627e-01 
mem_wdata_D\[0\] O *L 1.000e+00 *S 3.040e-01 2.007e-01 
mem_rdata_D\[63\] I *L 0.000e+00 *S 1.332e-02 1.332e-02 
mem_rdata_D\[62\] I *L 0.000e+00 *S 1.332e-02 1.332e-02 
mem_rdata_D\[61\] I *L 0.000e+00 *S 1.332e-02 1.332e-02 
mem_rdata_D\[60\] I *L 0.000e+00 *S 1.141e-02 1.141e-02 
mem_rdata_D\[59\] I *L 0.000e+00 *S 1.207e-02 1.207e-02 
mem_rdata_D\[58\] I *L 0.000e+00 *S 1.207e-02 1.207e-02 
mem_rdata_D\[57\] I *L 0.000e+00 *S 1.207e-02 1.207e-02 
mem_rdata_D\[56\] I *L 0.000e+00 *S 1.207e-02 1.207e-02 
mem_rdata_D\[55\] I *L 0.000e+00 *S 1.207e-02 1.207e-02 
mem_rdata_D\[54\] I *L 0.000e+00 *S 1.207e-02 1.207e-02 
mem_rdata_D\[53\] I *L 0.000e+00 *S 1.207e-02 1.207e-02 
mem_rdata_D\[52\] I *L 0.000e+00 *S 1.207e-02 1.207e-02 
mem_rdata_D\[51\] I *L 0.000e+00 *S 1.207e-02 1.207e-02 
mem_rdata_D\[50\] I *L 0.000e+00 *S 1.332e-02 1.332e-02 
mem_rdata_D\[49\] I *L 0.000e+00 *S 1.332e-02 1.332e-02 
mem_rdata_D\[48\] I *L 0.000e+00 *S 1.332e-02 1.332e-02 
mem_rdata_D\[47\] I *L 0.000e+00 *S 1.207e-02 1.207e-02 
mem_rdata_D\[46\] I *L 0.000e+00 *S 1.207e-02 1.207e-02 
mem_rdata_D\[45\] I *L 0.000e+00 *S 1.207e-02 1.207e-02 
mem_rdata_D\[44\] I *L 0.000e+00 *S 1.207e-02 1.207e-02 
mem_rdata_D\[43\] I *L 0.000e+00 *S 1.207e-02 1.207e-02 
mem_rdata_D\[42\] I *L 0.000e+00 *S 1.332e-02 1.332e-02 
mem_rdata_D\[41\] I *L 0.000e+00 *S 1.207e-02 1.207e-02 
mem_rdata_D\[40\] I *L 0.000e+00 *S 1.332e-02 1.332e-02 
mem_rdata_D\[39\] I *L 0.000e+00 *S 1.169e-02 1.169e-02 
mem_rdata_D\[38\] I *L 0.000e+00 *S 1.214e-02 1.214e-02 
mem_rdata_D\[37\] I *L 0.000e+00 *S 1.207e-02 1.207e-02 
mem_rdata_D\[36\] I *L 0.000e+00 *S 1.207e-02 1.207e-02 
mem_rdata_D\[35\] I *L 0.000e+00 *S 1.332e-02 1.332e-02 
mem_rdata_D\[34\] I *L 0.000e+00 *S 1.207e-02 1.207e-02 
mem_rdata_D\[33\] I *L 0.000e+00 *S 1.207e-02 1.207e-02 
mem_rdata_D\[32\] I *L 0.000e+00 *S 1.207e-02 1.207e-02 
mem_rdata_D\[31\] I *L 0.000e+00 *S 1.332e-02 1.332e-02 
mem_rdata_D\[30\] I *L 0.000e+00 *S 1.332e-02 1.332e-02 
mem_rdata_D\[29\] I *L 0.000e+00 *S 1.169e-02 1.169e-02 
mem_rdata_D\[28\] I *L 0.000e+00 *S 1.169e-02 1.169e-02 
mem_rdata_D\[27\] I *L 0.000e+00 *S 1.141e-02 1.141e-02 
mem_rdata_D\[26\] I *L 0.000e+00 *S 1.169e-02 1.169e-02 
mem_rdata_D\[25\] I *L 0.000e+00 *S 1.169e-02 1.169e-02 
mem_rdata_D\[24\] I *L 0.000e+00 *S 1.207e-02 1.207e-02 
mem_rdata_D\[23\] I *L 0.000e+00 *S 1.169e-02 1.169e-02 
mem_rdata_D\[22\] I *L 0.000e+00 *S 1.169e-02 1.169e-02 
mem_rdata_D\[21\] I *L 0.000e+00 *S 1.207e-02 1.207e-02 
mem_rdata_D\[20\] I *L 0.000e+00 *S 1.332e-02 1.332e-02 
mem_rdata_D\[19\] I *L 0.000e+00 *S 1.169e-02 1.169e-02 
mem_rdata_D\[18\] I *L 0.000e+00 *S 1.169e-02 1.169e-02 
mem_rdata_D\[17\] I *L 0.000e+00 *S 1.169e-02 1.169e-02 
mem_rdata_D\[16\] I *L 0.000e+00 *S 1.169e-02 1.169e-02 
mem_rdata_D\[15\] I *L 0.000e+00 *S 1.207e-02 1.207e-02 
mem_rdata_D\[14\] I *L 0.000e+00 *S 1.207e-02 1.207e-02 
mem_rdata_D\[13\] I *L 0.000e+00 *S 1.169e-02 1.169e-02 
mem_rdata_D\[12\] I *L 0.000e+00 *S 1.207e-02 1.207e-02 
mem_rdata_D\[11\] I *L 0.000e+00 *S 1.318e-02 1.318e-02 
mem_rdata_D\[10\] I *L 0.000e+00 *S 1.318e-02 1.318e-02 
mem_rdata_D\[9\] I *L 0.000e+00 *S 1.169e-02 1.169e-02 
mem_rdata_D\[8\] I *L 0.000e+00 *S 1.318e-02 1.318e-02 
mem_rdata_D\[7\] I *L 0.000e+00 *S 1.169e-02 1.169e-02 
mem_rdata_D\[6\] I *L 0.000e+00 *S 1.207e-02 1.207e-02 
mem_rdata_D\[5\] I *L 0.000e+00 *S 1.207e-02 1.207e-02 
mem_rdata_D\[4\] I *L 0.000e+00 *S 1.207e-02 1.207e-02 
mem_rdata_D\[3\] I *L 0.000e+00 *S 1.318e-02 1.318e-02 
mem_rdata_D\[2\] I *L 0.000e+00 *S 1.207e-02 1.207e-02 
mem_rdata_D\[1\] I *L 0.000e+00 *S 1.169e-02 1.169e-02 
mem_rdata_D\[0\] I *L 0.000e+00 *S 1.169e-02 1.169e-02 
mem_addr_I\[31\] O *L 1.000e+00 *S 3.972e-01 2.599e-01 
mem_addr_I\[30\] O *L 1.000e+00 *S 3.972e-01 2.599e-01 
mem_addr_I\[29\] O *L 1.000e+00 *S 3.972e-01 2.599e-01 
mem_addr_I\[28\] O *L 1.000e+00 *S 3.972e-01 2.599e-01 
mem_addr_I\[27\] O *L 1.000e+00 *S 3.972e-01 2.599e-01 
mem_addr_I\[26\] O *L 1.000e+00 *S 3.972e-01 2.599e-01 
mem_addr_I\[25\] O *L 1.000e+00 *S 3.972e-01 2.599e-01 
mem_addr_I\[24\] O *L 1.000e+00 *S 3.972e-01 2.599e-01 
mem_addr_I\[23\] O *L 1.000e+00 *S 3.972e-01 2.599e-01 
mem_addr_I\[22\] O *L 1.000e+00 *S 3.972e-01 2.599e-01 
mem_addr_I\[21\] O *L 1.000e+00 *S 3.972e-01 2.599e-01 
mem_addr_I\[20\] O *L 1.000e+00 *S 3.972e-01 2.599e-01 
mem_addr_I\[19\] O *L 1.000e+00 *S 4.021e-01 2.629e-01 
mem_addr_I\[18\] O *L 1.000e+00 *S 3.972e-01 2.599e-01 
mem_addr_I\[17\] O *L 1.000e+00 *S 4.021e-01 2.628e-01 
mem_addr_I\[16\] O *L 1.000e+00 *S 3.972e-01 2.599e-01 
mem_addr_I\[15\] O *L 1.000e+00 *S 4.021e-01 2.628e-01 
mem_addr_I\[14\] O *L 1.000e+00 *S 3.972e-01 2.599e-01 
mem_addr_I\[13\] O *L 1.000e+00 *S 4.021e-01 2.628e-01 
mem_addr_I\[12\] O *L 1.000e+00 *S 3.972e-01 2.599e-01 
mem_addr_I\[11\] O *L 1.000e+00 *S 3.972e-01 2.599e-01 
mem_addr_I\[10\] O *L 1.000e+00 *S 3.972e-01 2.599e-01 
mem_addr_I\[9\] O *L 1.000e+00 *S 3.972e-01 2.599e-01 
mem_addr_I\[8\] O *L 1.000e+00 *S 3.972e-01 2.599e-01 
mem_addr_I\[7\] O *L 1.000e+00 *S 3.972e-01 2.599e-01 
mem_addr_I\[6\] O *L 1.000e+00 *S 3.972e-01 2.599e-01 
mem_addr_I\[5\] O *L 1.000e+00 *S 3.972e-01 2.599e-01 
mem_addr_I\[4\] O *L 1.000e+00 *S 3.972e-01 2.599e-01 
mem_addr_I\[3\] O *L 1.000e+00 *S 3.972e-01 2.599e-01 
mem_addr_I\[2\] O *L 1.000e+00 *S 3.039e-01 2.006e-01 
mem_rdata_I\[31\] I *L 0.000e+00 *S 1.253e-02 1.253e-02 
mem_rdata_I\[30\] I *L 0.000e+00 *S 4.606e-02 4.606e-02 
mem_rdata_I\[29\] I *L 0.000e+00 *S 6.774e-02 6.774e-02 
mem_rdata_I\[28\] I *L 0.000e+00 *S 6.415e-02 6.415e-02 
mem_rdata_I\[27\] I *L 0.000e+00 *S 2.562e-02 2.562e-02 
mem_rdata_I\[26\] I *L 0.000e+00 *S 4.259e-02 4.259e-02 
mem_rdata_I\[25\] I *L 0.000e+00 *S 1.437e-02 1.437e-02 
mem_rdata_I\[24\] I *L 0.000e+00 *S 1.414e-02 1.414e-02 
mem_rdata_I\[23\] I *L 0.000e+00 *S 1.666e-02 1.666e-02 
mem_rdata_I\[22\] I *L 0.000e+00 *S 5.000e-02 5.000e-02 
mem_rdata_I\[21\] I *L 0.000e+00 *S 6.281e-02 6.281e-02 
mem_rdata_I\[20\] I *L 0.000e+00 *S 7.445e-02 7.445e-02 
mem_rdata_I\[19\] I *L 0.000e+00 *S 1.253e-02 1.253e-02 
mem_rdata_I\[18\] I *L 0.000e+00 *S 1.253e-02 1.253e-02 
mem_rdata_I\[17\] I *L 0.000e+00 *S 1.253e-02 1.253e-02 
mem_rdata_I\[16\] I *L 0.000e+00 *S 1.270e-02 1.270e-02 
mem_rdata_I\[15\] I *L 0.000e+00 *S 1.844e-02 1.844e-02 
mem_rdata_I\[14\] I *L 0.000e+00 *S 1.666e-02 1.666e-02 
mem_rdata_I\[13\] I *L 0.000e+00 *S 2.578e-02 2.578e-02 
mem_rdata_I\[12\] I *L 0.000e+00 *S 1.437e-02 1.437e-02 
mem_rdata_I\[11\] I *L 0.000e+00 *S 1.844e-02 1.844e-02 
mem_rdata_I\[10\] I *L 0.000e+00 *S 1.844e-02 1.844e-02 
mem_rdata_I\[9\] I *L 0.000e+00 *S 1.685e-02 1.685e-02 
mem_rdata_I\[8\] I *L 0.000e+00 *S 1.844e-02 1.844e-02 
mem_rdata_I\[7\] I *L 0.000e+00 *S 4.551e-02 4.551e-02 
mem_rdata_I\[6\] I *L 0.000e+00 *S 5.624e-02 5.624e-02 
mem_rdata_I\[5\] I *L 0.000e+00 *S 5.551e-02 5.551e-02 
mem_rdata_I\[4\] I *L 0.000e+00 *S 5.741e-02 5.741e-02 
mem_rdata_I\[3\] I *L 0.000e+00 *S 5.759e-02 5.759e-02 
mem_rdata_I\[2\] I *L 0.000e+00 *S 5.860e-02 5.860e-02 
mem_rdata_I\[1\] I *L 0.000e+00 *S 5.426e-02 5.426e-02 
mem_rdata_I\[0\] I *L 0.000e+00 *S 1.844e-02 1.844e-02 

*R_NET rst_n 2.777e-02
*DRIVER rst_n
*CELL NULL
*C2_R1_C1 1.389e-02 5.667e-06 1.389e-02 
*LOADS
*RC U3921:A 1.574e-07
*END

*R_NET n5954 1.246e-02
*DRIVER U4399:Y
*CELL OAI211XL
*C2_R1_C1 6.230e-03 5.667e-06 6.230e-03 
*LOADS
*RC U3470:A 7.060e-08
*END

*R_NET mem_addr_D\[30\] 1.010e+00
*DRIVER U5926:Y
*CELL INVX12
*C2_R1_C1 5.050e-01 5.667e-06 5.050e-01 
*LOADS
*RC mem_addr_D\[30\] 5.723e-06
*END

*R_NET mem_addr_D\[29\] 1.010e+00
*DRIVER U5915:Y
*CELL INVX12
*C2_R1_C1 5.050e-01 5.667e-06 5.050e-01 
*LOADS
*RC mem_addr_D\[29\] 5.723e-06
*END

*R_NET mem_addr_D\[28\] 1.010e+00
*DRIVER U5924:Y
*CELL INVX12
*C2_R1_C1 5.050e-01 5.667e-06 5.050e-01 
*LOADS
*RC mem_addr_D\[28\] 5.723e-06
*END

*R_NET n5955 3.654e-02
*DRIVER U4471:Y
*CELL AND4X1
*C2_R1_C1 1.827e-02 5.667e-06 1.827e-02 
*LOADS
*RC U4472:A 2.070e-07
*END

*R_NET mem_addr_D\[26\] 1.010e+00
*DRIVER U5931:Y
*CELL INVX12
*C2_R1_C1 5.050e-01 5.667e-06 5.050e-01 
*LOADS
*RC mem_addr_D\[26\] 5.723e-06
*END

*R_NET mem_addr_D\[25\] 1.010e+00
*DRIVER U5920:Y
*CELL INVX12
*C2_R1_C1 5.050e-01 5.667e-06 5.050e-01 
*LOADS
*RC mem_addr_D\[25\] 5.723e-06
*END

*R_NET mem_addr_D\[24\] 1.010e+00
*DRIVER U5933:Y
*CELL INVX12
*C2_R1_C1 5.050e-01 5.667e-06 5.050e-01 
*LOADS
*RC mem_addr_D\[24\] 5.723e-06
*END

*R_NET mem_addr_D\[23\] 1.010e+00
*DRIVER U5862:Y
*CELL INVX12
*C2_R1_C1 5.050e-01 5.667e-06 5.050e-01 
*LOADS
*RC mem_addr_D\[23\] 5.723e-06
*END

*R_NET mem_addr_D\[22\] 1.010e+00
*DRIVER U5918:Y
*CELL INVX12
*C2_R1_C1 5.050e-01 5.667e-06 5.050e-01 
*LOADS
*RC mem_addr_D\[22\] 5.723e-06
*END

*R_NET mem_addr_D\[21\] 1.010e+00
*DRIVER U5860:Y
*CELL INVX12
*C2_R1_C1 5.050e-01 5.667e-06 5.050e-01 
*LOADS
*RC mem_addr_D\[21\] 5.723e-06
*END

*R_NET mem_addr_D\[20\] 1.010e+00
*DRIVER U5922:Y
*CELL INVX12
*C2_R1_C1 5.050e-01 5.667e-06 5.050e-01 
*LOADS
*RC mem_addr_D\[20\] 5.723e-06
*END

*R_NET mem_addr_D\[19\] 1.010e+00
*DRIVER U5935:Y
*CELL INVX12
*C2_R1_C1 5.050e-01 5.667e-06 5.050e-01 
*LOADS
*RC mem_addr_D\[19\] 5.723e-06
*END

*R_NET mem_addr_D\[18\] 1.010e+00
*DRIVER U5898:Y
*CELL INVX12
*C2_R1_C1 5.050e-01 5.667e-06 5.050e-01 
*LOADS
*RC mem_addr_D\[18\] 5.723e-06
*END

*R_NET mem_addr_D\[17\] 1.010e+00
*DRIVER U5929:Y
*CELL INVX12
*C2_R1_C1 5.050e-01 5.667e-06 5.050e-01 
*LOADS
*RC mem_addr_D\[17\] 5.723e-06
*END

*R_NET mem_addr_D\[16\] 1.010e+00
*DRIVER U5912:Y
*CELL INVX12
*C2_R1_C1 5.050e-01 5.667e-06 5.050e-01 
*LOADS
*RC mem_addr_D\[16\] 5.723e-06
*END

*R_NET mem_addr_D\[15\] 1.010e+00
*DRIVER U6009:Y
*CELL INVX12
*C2_R1_C1 5.050e-01 5.667e-06 5.050e-01 
*LOADS
*RC mem_addr_D\[15\] 5.723e-06
*END

*R_NET mem_addr_D\[14\] 1.010e+00
*DRIVER U5938:Y
*CELL INVX12
*C2_R1_C1 5.050e-01 5.667e-06 5.050e-01 
*LOADS
*RC mem_addr_D\[14\] 5.723e-06
*END

*R_NET mem_addr_D\[13\] 1.010e+00
*DRIVER U6006:Y
*CELL INVX12
*C2_R1_C1 5.050e-01 5.667e-06 5.050e-01 
*LOADS
*RC mem_addr_D\[13\] 5.723e-06
*END

*R_NET mem_addr_D\[12\] 1.010e+00
*DRIVER U5955:Y
*CELL INVX12
*C2_R1_C1 5.050e-01 5.667e-06 5.050e-01 
*LOADS
*RC mem_addr_D\[12\] 5.723e-06
*END

*R_NET mem_addr_D\[11\] 1.010e+00
*DRIVER U5942:Y
*CELL INVX12
*C2_R1_C1 5.050e-01 5.667e-06 5.050e-01 
*LOADS
*RC mem_addr_D\[11\] 5.723e-06
*END

*R_NET n5956 1.246e-02
*DRIVER U4403:Y
*CELL OAI211XL
*C2_R1_C1 6.230e-03 5.667e-06 6.230e-03 
*LOADS
*RC U3475:A 7.060e-08
*END

*R_NET n5957 1.246e-02
*DRIVER U4405:Y
*CELL OAI211XL
*C2_R1_C1 6.230e-03 5.667e-06 6.230e-03 
*LOADS
*RC U3477:A 7.060e-08
*END

*R_NET n5958 1.163e-02
*DRIVER U4401:Y
*CELL OAI211XL
*C2_R1_C1 5.817e-03 5.667e-06 5.817e-03 
*LOADS
*RC U2994:A 6.593e-08
*END

*R_NET n5959 3.654e-02
*DRIVER U4474:Y
*CELL AND4X1
*C2_R1_C1 1.827e-02 5.667e-06 1.827e-02 
*LOADS
*RC U4475:A 2.070e-07
*END

*R_NET n5960 3.654e-02
*DRIVER U4469:Y
*CELL AND4X1
*C2_R1_C1 1.827e-02 5.667e-06 1.827e-02 
*LOADS
*RC U4470:A 2.070e-07
*END

*R_NET n5961 3.654e-02
*DRIVER U4477:Y
*CELL AND4X1
*C2_R1_C1 1.827e-02 5.667e-06 1.827e-02 
*LOADS
*RC U4478:A 2.070e-07
*END

*R_NET n5962 1.246e-02
*DRIVER U4397:Y
*CELL OAI211XL
*C2_R1_C1 6.230e-03 5.667e-06 6.230e-03 
*LOADS
*RC U3488:A 7.060e-08
*END

*R_NET n5963 3.654e-02
*DRIVER U4480:Y
*CELL AND4X1
*C2_R1_C1 1.827e-02 5.667e-06 1.827e-02 
*LOADS
*RC U4481:A 2.070e-07
*END

*R_NET mem_addr_D\[2\] 1.010e+00
*DRIVER U5895:Y
*CELL INVX12
*C2_R1_C1 5.050e-01 5.667e-06 5.050e-01 
*LOADS
*RC mem_addr_D\[2\] 5.723e-06
*END

*R_NET n5964 4.583e-02
*DRIVER U4457:Y
*CELL NAND2X2
*C2_R1_C1 2.291e-02 5.667e-06 2.291e-02 
*LOADS
*RC U2772:A 2.597e-07
*END

*R_NET n5965 4.583e-02
*DRIVER U2787:Y
*CELL NAND2X4
*C2_R1_C1 2.291e-02 5.667e-06 2.291e-02 
*LOADS
*RC U2783:A 2.597e-07
*END

*R_NET n5966 5.423e-02
*DRIVER U2782:Y
*CELL NAND2X4
*C2_R1_C1 2.711e-02 5.667e-06 2.711e-02 
*LOADS
*RC U4464:A 3.073e-07
*END

*R_NET mem_rdata_D\[63\] 1.332e-02
*DRIVER mem_rdata_D\[63\]
*CELL NULL
*C2_R1_C1 6.661e-03 5.667e-06 6.661e-03 
*LOADS
*RC U5789:A1 7.549e-08
*END

*R_NET mem_rdata_D\[62\] 1.332e-02
*DRIVER mem_rdata_D\[62\]
*CELL NULL
*C2_R1_C1 6.661e-03 5.667e-06 6.661e-03 
*LOADS
*RC U3252:A1 7.549e-08
*END

*R_NET mem_rdata_D\[61\] 1.332e-02
*DRIVER mem_rdata_D\[61\]
*CELL NULL
*C2_R1_C1 6.661e-03 5.667e-06 6.661e-03 
*LOADS
*RC U3551:A1 7.549e-08
*END

*R_NET mem_rdata_D\[60\] 1.141e-02
*DRIVER mem_rdata_D\[60\]
*CELL NULL
*C2_R1_C1 5.706e-03 5.667e-06 5.706e-03 
*LOADS
*RC U5892:A0N 6.467e-08
*END

*R_NET mem_rdata_D\[59\] 1.207e-02
*DRIVER mem_rdata_D\[59\]
*CELL NULL
*C2_R1_C1 6.034e-03 5.667e-06 6.034e-03 
*LOADS
*RC U2962:A1 6.839e-08
*END

*R_NET mem_rdata_D\[58\] 1.207e-02
*DRIVER mem_rdata_D\[58\]
*CELL NULL
*C2_R1_C1 6.033e-03 5.667e-06 6.033e-03 
*LOADS
*RC U4230:B0 6.837e-08
*END

*R_NET mem_rdata_D\[57\] 1.207e-02
*DRIVER mem_rdata_D\[57\]
*CELL NULL
*C2_R1_C1 6.033e-03 5.667e-06 6.033e-03 
*LOADS
*RC U4187:B0 6.837e-08
*END

*R_NET mem_rdata_D\[56\] 1.207e-02
*DRIVER mem_rdata_D\[56\]
*CELL NULL
*C2_R1_C1 6.033e-03 5.667e-06 6.033e-03 
*LOADS
*RC U4153:B0 6.837e-08
*END

*R_NET mem_rdata_D\[55\] 1.207e-02
*DRIVER mem_rdata_D\[55\]
*CELL NULL
*C2_R1_C1 6.034e-03 5.667e-06 6.034e-03 
*LOADS
*RC U4246:A1 6.839e-08
*END

*R_NET mem_rdata_D\[54\] 1.207e-02
*DRIVER mem_rdata_D\[54\]
*CELL NULL
*C2_R1_C1 6.034e-03 5.667e-06 6.034e-03 
*LOADS
*RC U4245:A1 6.839e-08
*END

*R_NET mem_rdata_D\[53\] 1.207e-02
*DRIVER mem_rdata_D\[53\]
*CELL NULL
*C2_R1_C1 6.034e-03 5.667e-06 6.034e-03 
*LOADS
*RC U3979:A1 6.839e-08
*END

*R_NET mem_rdata_D\[52\] 1.207e-02
*DRIVER mem_rdata_D\[52\]
*CELL NULL
*C2_R1_C1 6.034e-03 5.667e-06 6.034e-03 
*LOADS
*RC U4266:A1 6.839e-08
*END

*R_NET mem_rdata_D\[51\] 1.207e-02
*DRIVER mem_rdata_D\[51\]
*CELL NULL
*C2_R1_C1 6.034e-03 5.667e-06 6.034e-03 
*LOADS
*RC U4244:A1 6.839e-08
*END

*R_NET mem_rdata_D\[50\] 1.332e-02
*DRIVER mem_rdata_D\[50\]
*CELL NULL
*C2_R1_C1 6.661e-03 5.667e-06 6.661e-03 
*LOADS
*RC U3021:A1 7.549e-08
*END

*R_NET mem_rdata_D\[49\] 1.332e-02
*DRIVER mem_rdata_D\[49\]
*CELL NULL
*C2_R1_C1 6.661e-03 5.667e-06 6.661e-03 
*LOADS
*RC U3491:A1 7.549e-08
*END

*R_NET mem_rdata_D\[48\] 1.332e-02
*DRIVER mem_rdata_D\[48\]
*CELL NULL
*C2_R1_C1 6.661e-03 5.667e-06 6.661e-03 
*LOADS
*RC U3265:A1 7.549e-08
*END

*R_NET mem_rdata_D\[47\] 1.207e-02
*DRIVER mem_rdata_D\[47\]
*CELL NULL
*C2_R1_C1 6.034e-03 5.667e-06 6.034e-03 
*LOADS
*RC U4269:A1 6.839e-08
*END

*R_NET mem_rdata_D\[46\] 1.207e-02
*DRIVER mem_rdata_D\[46\]
*CELL NULL
*C2_R1_C1 6.034e-03 5.667e-06 6.034e-03 
*LOADS
*RC U4262:A1 6.839e-08
*END

*R_NET mem_rdata_D\[45\] 1.207e-02
*DRIVER mem_rdata_D\[45\]
*CELL NULL
*C2_R1_C1 6.034e-03 5.667e-06 6.034e-03 
*LOADS
*RC U4248:A1 6.839e-08
*END

*R_NET mem_rdata_D\[44\] 1.207e-02
*DRIVER mem_rdata_D\[44\]
*CELL NULL
*C2_R1_C1 6.034e-03 5.667e-06 6.034e-03 
*LOADS
*RC U4268:A1 6.839e-08
*END

*R_NET mem_rdata_D\[43\] 1.207e-02
*DRIVER mem_rdata_D\[43\]
*CELL NULL
*C2_R1_C1 6.034e-03 5.667e-06 6.034e-03 
*LOADS
*RC U4247:A1 6.839e-08
*END

*R_NET mem_rdata_D\[42\] 1.332e-02
*DRIVER mem_rdata_D\[42\]
*CELL NULL
*C2_R1_C1 6.661e-03 5.667e-06 6.661e-03 
*LOADS
*RC U3263:A1 7.549e-08
*END

*R_NET mem_rdata_D\[41\] 1.207e-02
*DRIVER mem_rdata_D\[41\]
*CELL NULL
*C2_R1_C1 6.034e-03 5.667e-06 6.034e-03 
*LOADS
*RC U4267:A1 6.839e-08
*END

*R_NET mem_rdata_D\[40\] 1.332e-02
*DRIVER mem_rdata_D\[40\]
*CELL NULL
*C2_R1_C1 6.661e-03 5.667e-06 6.661e-03 
*LOADS
*RC U5806:A1 7.549e-08
*END

*R_NET mem_rdata_D\[39\] 1.169e-02
*DRIVER mem_rdata_D\[39\]
*CELL NULL
*C2_R1_C1 5.845e-03 5.667e-06 5.845e-03 
*LOADS
*RC U4273:B 6.624e-08
*END

*R_NET mem_rdata_D\[38\] 1.214e-02
*DRIVER mem_rdata_D\[38\]
*CELL NULL
*C2_R1_C1 6.071e-03 5.667e-06 6.071e-03 
*LOADS
*RC U4249:A0 6.880e-08
*END

*R_NET mem_rdata_D\[37\] 1.207e-02
*DRIVER mem_rdata_D\[37\]
*CELL NULL
*C2_R1_C1 6.034e-03 5.667e-06 6.034e-03 
*LOADS
*RC U4271:A1 6.839e-08
*END

*R_NET mem_rdata_D\[36\] 1.207e-02
*DRIVER mem_rdata_D\[36\]
*CELL NULL
*C2_R1_C1 6.034e-03 5.667e-06 6.034e-03 
*LOADS
*RC U4663:A1 6.839e-08
*END

*R_NET mem_rdata_D\[35\] 1.332e-02
*DRIVER mem_rdata_D\[35\]
*CELL NULL
*C2_R1_C1 6.661e-03 5.667e-06 6.661e-03 
*LOADS
*RC U5854:A1 7.549e-08
*END

*R_NET mem_rdata_D\[34\] 1.207e-02
*DRIVER mem_rdata_D\[34\]
*CELL NULL
*C2_R1_C1 6.034e-03 5.667e-06 6.034e-03 
*LOADS
*RC U4651:A1 6.839e-08
*END

*R_NET mem_rdata_D\[33\] 1.207e-02
*DRIVER mem_rdata_D\[33\]
*CELL NULL
*C2_R1_C1 6.034e-03 5.667e-06 6.034e-03 
*LOADS
*RC U3980:A1 6.839e-08
*END

*R_NET mem_rdata_D\[32\] 1.207e-02
*DRIVER mem_rdata_D\[32\]
*CELL NULL
*C2_R1_C1 6.034e-03 5.667e-06 6.034e-03 
*LOADS
*RC U4270:A1 6.839e-08
*END

*R_NET mem_rdata_D\[31\] 1.332e-02
*DRIVER mem_rdata_D\[31\]
*CELL NULL
*C2_R1_C1 6.661e-03 5.667e-06 6.661e-03 
*LOADS
*RC U6134:A1 7.549e-08
*END

*R_NET mem_rdata_D\[30\] 1.332e-02
*DRIVER mem_rdata_D\[30\]
*CELL NULL
*C2_R1_C1 6.661e-03 5.667e-06 6.661e-03 
*LOADS
*RC U6113:A1 7.549e-08
*END

*R_NET mem_rdata_D\[29\] 1.169e-02
*DRIVER mem_rdata_D\[29\]
*CELL NULL
*C2_R1_C1 5.845e-03 5.667e-06 5.845e-03 
*LOADS
*RC U4628:B 6.624e-08
*END

*R_NET mem_rdata_D\[28\] 1.169e-02
*DRIVER mem_rdata_D\[28\]
*CELL NULL
*C2_R1_C1 5.845e-03 5.667e-06 5.845e-03 
*LOADS
*RC U6094:B 6.624e-08
*END

*R_NET mem_rdata_D\[27\] 1.141e-02
*DRIVER mem_rdata_D\[27\]
*CELL NULL
*C2_R1_C1 5.706e-03 5.667e-06 5.706e-03 
*LOADS
*RC U6086:A0N 6.467e-08
*END

*R_NET mem_rdata_D\[26\] 1.169e-02
*DRIVER mem_rdata_D\[26\]
*CELL NULL
*C2_R1_C1 5.845e-03 5.667e-06 5.845e-03 
*LOADS
*RC U6065:B 6.624e-08
*END

*R_NET mem_rdata_D\[25\] 1.169e-02
*DRIVER mem_rdata_D\[25\]
*CELL NULL
*C2_R1_C1 5.845e-03 5.667e-06 5.845e-03 
*LOADS
*RC U5466:B 6.624e-08
*END

*R_NET mem_rdata_D\[24\] 1.207e-02
*DRIVER mem_rdata_D\[24\]
*CELL NULL
*C2_R1_C1 6.034e-03 5.667e-06 6.034e-03 
*LOADS
*RC U4037:A1 6.839e-08
*END

*R_NET mem_rdata_D\[23\] 1.169e-02
*DRIVER mem_rdata_D\[23\]
*CELL NULL
*C2_R1_C1 5.845e-03 5.667e-06 5.845e-03 
*LOADS
*RC U5529:B 6.624e-08
*END

*R_NET mem_rdata_D\[22\] 1.169e-02
*DRIVER mem_rdata_D\[22\]
*CELL NULL
*C2_R1_C1 5.845e-03 5.667e-06 5.845e-03 
*LOADS
*RC U6119:B 6.624e-08
*END

*R_NET mem_rdata_D\[21\] 1.207e-02
*DRIVER mem_rdata_D\[21\]
*CELL NULL
*C2_R1_C1 6.034e-03 5.667e-06 6.034e-03 
*LOADS
*RC U4231:A1 6.839e-08
*END

*R_NET mem_rdata_D\[20\] 1.332e-02
*DRIVER mem_rdata_D\[20\]
*CELL NULL
*C2_R1_C1 6.661e-03 5.667e-06 6.661e-03 
*LOADS
*RC U5493:A1 7.549e-08
*END

*R_NET mem_rdata_D\[19\] 1.169e-02
*DRIVER mem_rdata_D\[19\]
*CELL NULL
*C2_R1_C1 5.845e-03 5.667e-06 5.845e-03 
*LOADS
*RC U5523:B 6.624e-08
*END

*R_NET mem_rdata_D\[18\] 1.169e-02
*DRIVER mem_rdata_D\[18\]
*CELL NULL
*C2_R1_C1 5.845e-03 5.667e-06 5.845e-03 
*LOADS
*RC U6124:B 6.624e-08
*END

*R_NET mem_rdata_D\[17\] 1.169e-02
*DRIVER mem_rdata_D\[17\]
*CELL NULL
*C2_R1_C1 5.845e-03 5.667e-06 5.845e-03 
*LOADS
*RC U4629:B 6.624e-08
*END

*R_NET mem_rdata_D\[16\] 1.169e-02
*DRIVER mem_rdata_D\[16\]
*CELL NULL
*C2_R1_C1 5.845e-03 5.667e-06 5.845e-03 
*LOADS
*RC U6053:B 6.624e-08
*END

*R_NET mem_rdata_D\[15\] 1.207e-02
*DRIVER mem_rdata_D\[15\]
*CELL NULL
*C2_R1_C1 6.034e-03 5.667e-06 6.034e-03 
*LOADS
*RC U4258:A1 6.839e-08
*END

*R_NET mem_rdata_D\[14\] 1.207e-02
*DRIVER mem_rdata_D\[14\]
*CELL NULL
*C2_R1_C1 6.034e-03 5.667e-06 6.034e-03 
*LOADS
*RC U4068:A1 6.839e-08
*END

*R_NET mem_rdata_D\[13\] 1.169e-02
*DRIVER mem_rdata_D\[13\]
*CELL NULL
*C2_R1_C1 5.845e-03 5.667e-06 5.845e-03 
*LOADS
*RC U6070:B 6.624e-08
*END

*R_NET mem_rdata_D\[12\] 1.207e-02
*DRIVER mem_rdata_D\[12\]
*CELL NULL
*C2_R1_C1 6.034e-03 5.667e-06 6.034e-03 
*LOADS
*RC U4281:A1 6.839e-08
*END

*R_NET mem_rdata_D\[11\] 1.318e-02
*DRIVER mem_rdata_D\[11\]
*CELL NULL
*C2_R1_C1 6.589e-03 5.667e-06 6.589e-03 
*LOADS
*RC U3254:B1 7.468e-08
*END

*R_NET mem_rdata_D\[10\] 1.318e-02
*DRIVER mem_rdata_D\[10\]
*CELL NULL
*C2_R1_C1 6.589e-03 5.667e-06 6.589e-03 
*LOADS
*RC U3264:B1 7.468e-08
*END

*R_NET mem_rdata_D\[9\] 1.169e-02
*DRIVER mem_rdata_D\[9\]
*CELL NULL
*C2_R1_C1 5.845e-03 5.667e-06 5.845e-03 
*LOADS
*RC U6034:B 6.624e-08
*END

*R_NET mem_rdata_D\[8\] 1.318e-02
*DRIVER mem_rdata_D\[8\]
*CELL NULL
*C2_R1_C1 6.589e-03 5.667e-06 6.589e-03 
*LOADS
*RC U3257:B1 7.468e-08
*END

*R_NET mem_rdata_D\[7\] 1.169e-02
*DRIVER mem_rdata_D\[7\]
*CELL NULL
*C2_R1_C1 5.845e-03 5.667e-06 5.845e-03 
*LOADS
*RC U5521:B 6.624e-08
*END

*R_NET mem_rdata_D\[6\] 1.207e-02
*DRIVER mem_rdata_D\[6\]
*CELL NULL
*C2_R1_C1 6.034e-03 5.667e-06 6.034e-03 
*LOADS
*RC U4261:A1 6.839e-08
*END

*R_NET mem_rdata_D\[5\] 1.207e-02
*DRIVER mem_rdata_D\[5\]
*CELL NULL
*C2_R1_C1 6.034e-03 5.667e-06 6.034e-03 
*LOADS
*RC U4088:A1 6.839e-08
*END

*R_NET mem_rdata_D\[4\] 1.207e-02
*DRIVER mem_rdata_D\[4\]
*CELL NULL
*C2_R1_C1 6.034e-03 5.667e-06 6.034e-03 
*LOADS
*RC U4239:A1 6.839e-08
*END

*R_NET mem_rdata_D\[3\] 1.318e-02
*DRIVER mem_rdata_D\[3\]
*CELL NULL
*C2_R1_C1 6.589e-03 5.667e-06 6.589e-03 
*LOADS
*RC U3253:B1 7.468e-08
*END

*R_NET mem_rdata_D\[2\] 1.207e-02
*DRIVER mem_rdata_D\[2\]
*CELL NULL
*C2_R1_C1 6.034e-03 5.667e-06 6.034e-03 
*LOADS
*RC U4083:A1 6.839e-08
*END

*R_NET mem_rdata_D\[1\] 1.169e-02
*DRIVER mem_rdata_D\[1\]
*CELL NULL
*C2_R1_C1 5.845e-03 5.667e-06 5.845e-03 
*LOADS
*RC U4077:B 6.624e-08
*END

*R_NET mem_rdata_D\[0\] 1.169e-02
*DRIVER mem_rdata_D\[0\]
*CELL NULL
*C2_R1_C1 5.845e-03 5.667e-06 5.845e-03 
*LOADS
*RC U6041:B 6.624e-08
*END

*R_NET n5967 1.253e-02
*DRIVER mem_addr_I_reg_31_:Q
*CELL DFFRX2
*C2_R1_C1 6.264e-03 5.667e-06 6.264e-03 
*LOADS
*RC U4529:B 7.099e-08
*END

*R_NET n5968 1.550e-02
*DRIVER mem_addr_I_reg_28_:Q
*CELL DFFRX2
*C2_R1_C1 7.750e-03 5.667e-06 7.750e-03 
*LOADS
*RC U3266:A 8.783e-08
*END

*R_NET n5969 1.730e-02
*DRIVER mem_addr_I_reg_27_:Q
*CELL DFFRX1
*C2_R1_C1 8.649e-03 5.667e-06 8.649e-03 
*LOADS
*RC U4322:A 9.802e-08
*END

*R_NET n5970 1.730e-02
*DRIVER mem_addr_I_reg_26_:Q
*CELL DFFRX1
*C2_R1_C1 8.649e-03 5.667e-06 8.649e-03 
*LOADS
*RC U3640:A 9.802e-08
*END

*R_NET n5971 1.730e-02
*DRIVER mem_addr_I_reg_25_:Q
*CELL DFFRX2
*C2_R1_C1 8.649e-03 5.667e-06 8.649e-03 
*LOADS
*RC U3666:A 9.802e-08
*END

*R_NET n5972 1.730e-02
*DRIVER mem_addr_I_reg_24_:Q
*CELL DFFRX2
*C2_R1_C1 8.649e-03 5.667e-06 8.649e-03 
*LOADS
*RC U3360:A 9.802e-08
*END

*R_NET n5973 1.730e-02
*DRIVER mem_addr_I_reg_23_:Q
*CELL DFFRX2
*C2_R1_C1 8.649e-03 5.667e-06 8.649e-03 
*LOADS
*RC U4141:A 9.802e-08
*END

*R_NET n5974 1.730e-02
*DRIVER mem_addr_I_reg_22_:Q
*CELL DFFRX1
*C2_R1_C1 8.649e-03 5.667e-06 8.649e-03 
*LOADS
*RC U3752:A 9.802e-08
*END

*R_NET n5975 1.730e-02
*DRIVER mem_addr_I_reg_21_:Q
*CELL DFFRX1
*C2_R1_C1 8.649e-03 5.667e-06 8.649e-03 
*LOADS
*RC U3798:A 9.802e-08
*END

*R_NET n5976 1.730e-02
*DRIVER mem_addr_I_reg_20_:Q
*CELL DFFRX1
*C2_R1_C1 8.649e-03 5.667e-06 8.649e-03 
*LOADS
*RC U3831:A 9.802e-08
*END

*R_NET n5977 2.560e-02
*DRIVER mem_addr_I_reg_18_:Q
*CELL DFFRX1
*C2_R1_C1 1.280e-02 1.133e-05 1.280e-02 
*LOADS
*RC U3830:B 7.253e-08
*RC U3871:B 7.253e-08
*END

*R_NET n5978 2.586e-02
*DRIVER mem_addr_I_reg_16_:Q
*CELL DFFRX2
*C2_R1_C1 1.293e-02 1.133e-05 1.293e-02 
*LOADS
*RC U3414:B 7.253e-08
*RC U3869:A 7.401e-08
*END

*R_NET n5979 1.306e-02
*DRIVER mem_addr_I_reg_14_:Q
*CELL DFFRX1
*C2_R1_C1 6.531e-03 5.667e-06 6.531e-03 
*LOADS
*RC U3870:A 7.401e-08
*END

*R_NET n5980 2.475e-02
*DRIVER mem_addr_I_reg_12_:Q
*CELL DFFRX1
*C2_R1_C1 1.238e-02 1.133e-05 1.238e-02 
*LOADS
*RC U3868:A 7.401e-08
*RC U4305:B 6.624e-08
*END

*R_NET n5981 1.561e-02
*DRIVER mem_addr_I_reg_11_:Q
*CELL DFFRX1
*C2_R1_C1 7.806e-03 5.667e-06 7.806e-03 
*LOADS
*RC U4531:B 8.847e-08
*END

*R_NET n5982 1.730e-02
*DRIVER mem_addr_I_reg_10_:Q
*CELL DFFRX1
*C2_R1_C1 8.649e-03 5.667e-06 8.649e-03 
*LOADS
*RC U4515:A 9.802e-08
*END

*R_NET n5983 1.730e-02
*DRIVER mem_addr_I_reg_9_:Q
*CELL DFFRX1
*C2_R1_C1 8.649e-03 5.667e-06 8.649e-03 
*LOADS
*RC U3444:A 9.802e-08
*END

*R_NET n5984 1.730e-02
*DRIVER mem_addr_I_reg_8_:Q
*CELL DFFRX1
*C2_R1_C1 8.649e-03 5.667e-06 8.649e-03 
*LOADS
*RC U3136:A 9.802e-08
*END

*R_NET n5985 1.730e-02
*DRIVER mem_addr_I_reg_7_:Q
*CELL DFFRX1
*C2_R1_C1 8.649e-03 5.667e-06 8.649e-03 
*LOADS
*RC U3137:A 9.802e-08
*END

*R_NET n5986 1.730e-02
*DRIVER mem_addr_I_reg_6_:Q
*CELL DFFRX1
*C2_R1_C1 8.649e-03 5.667e-06 8.649e-03 
*LOADS